LAMMPS (16 Mar 2018)
dimension       2
boundary 		p p p
units           lj
atom_style      atomic

lattice 		none 1
region          box block 0 100 0 100 -0.5 0.5
create_box 		1 box
Created orthogonal box = (0 0 -0.5) to (100 100 0.5)
region 			particles block 1 99 1 99 -0.005 0.005
create_atoms	1 random 10000 352461 particles
Created 10000 atoms
  Time spent = 0.00112719 secs
mass            1 1.0

velocity        all create 1 54611
timestep		0.001

pair_style      nm/cut 1.0
pair_coeff      1 1 1.0 1.0 12 6 1.0
pair_modify		shift yes

neighbor        0.3 bin
neigh_modify    every 2 delay 0 check yes

fix 			2d all enforce2d
min_style 		fire
minimize 		1.0e-18 1.0e-18 10000000000 10000000000
  update every 1 steps, delay 0 steps, check yes
Step Temp E_pair E_mol TotEng Press
0            0 2.2297575e+18            0 2.2297575e+18 1.3378545e+19
Loop time of 5.25095 on 16 procs for 8697 steps with 10000 atoms

Minimization stats:
  Stopping criterion = energy tolerance
  Energy initial, next-to-last, final =
  Force two-norm initial, final = 2.56499e+25 4.64572e-07
  Force max component initial, final = 1.81307e+25 3.45778e-08
  Final line search alpha, max atom move = 0 0
  Iterations, force evaluations = 8697 8697

fix             1 all nvt temp 1 1 0.1
dump            1 all xyz 1000 atom.*.xyz

thermo          100
run             200000
Step Temp E_pair E_mol TotEng Press
8697 1.7856262e-17 1.4680479e-16            0 1.6465927e-16 2.2629905e-08
Averages over the last 1001 of 2002 rows, steps 108700 to 208697:
Temp E_pair E_mol TotEng Press
0.999708 0.507433 0 1.50704 7.61728
Loop time of 91.3484 on 16 procs for 200000 steps with 10000 atoms
